xflr5 v6.61

 Calculated polar for: E197  (13.49%)

 1 1 Reynolds number fixed          Mach number fixed         

 xtrf =   1.000 (top)        1.000 (bottom)
 Mach =   0.000     Re =     0.380 e 6     Ncrit =   9.000

  alpha     CL        CD       CDp       Cm    Top Xtr Bot Xtr   Cpmin    Chinge    XCp    
 ------- -------- --------- --------- -------- ------- ------- -------- --------- ---------
 -20.000  -0.4423   0.20828   0.20585   0.0117  1.0000  0.0141  -1.5346   0.0000   0.0000   0.0000   0.2613
 -19.900  -0.4380   0.20707   0.20463   0.0115  1.0000  0.0142  -1.4816   0.0000   0.0000   0.0000   0.2613
 -19.800  -0.4347   0.20605   0.20361   0.0111  1.0000  0.0143  -1.4451   0.0000   0.0000   0.0000   0.2607
 -19.700  -0.4317   0.20508   0.20264   0.0106  1.0000  0.0144  -1.4176   0.0000   0.0000   0.0000   0.2598
 -19.600  -0.4290   0.20414   0.20169   0.0101  1.0000  0.0145  -1.3962   0.0000   0.0000   0.0000   0.2588
 -19.500  -0.4265   0.20318   0.20073   0.0095  1.0000  0.0146  -1.3792   0.0000   0.0000   0.0000   0.2576
 -19.400  -0.4240   0.20222   0.19977   0.0089  1.0000  0.0148  -1.3660   0.0000   0.0000   0.0000   0.2564
 -19.300  -0.4216   0.20126   0.19880   0.0083  1.0000  0.0149  -1.3557   0.0000   0.0000   0.0000   0.2550
 -19.200  -0.4192   0.20028   0.19782   0.0077  1.0000  0.0151  -1.3481   0.0000   0.0000   0.0000   0.2537
 -19.100  -0.4169   0.19929   0.19683   0.0070  1.0000  0.0152  -1.3427   0.0000   0.0000   0.0000   0.2523
 -19.000  -0.4147   0.19828   0.19582   0.0064  1.0000  0.0154  -1.3394   0.0000   0.0000   0.0000   0.2508
 -18.900  -0.4125   0.19726   0.19480   0.0057  1.0000  0.0156  -1.3381   0.0000   0.0000   0.0000   0.2493
 -18.800  -0.4104   0.19623   0.19376   0.0051  1.0000  0.0159  -1.3386   0.0000   0.0000   0.0000   0.2478
 -18.700  -0.4083   0.19518   0.19271   0.0044  1.0000  0.0161  -1.3412   0.0000   0.0000   0.0000   0.2463
 -18.600  -0.4062   0.19411   0.19164   0.0037  1.0000  0.0164  -1.3464   0.0000   0.0000   0.0000   0.2446
 -18.500  -0.4043   0.19305   0.19057   0.0030  1.0000  0.0167  -1.3553   0.0000   0.0000   0.0000   0.2430
 -18.400  -0.4026   0.19189   0.18942   0.0023  1.0000  0.0171  -1.3755   0.0000   0.0000   0.0000   0.2411
 -18.300  -0.4028   0.19053   0.18805   0.0011  1.0000  0.0176  -1.4573   0.0000   0.0000   0.0000   0.2379
 -18.200  -0.4052   0.18941   0.18693  -0.0005  1.0000  0.0177  -1.5610   0.0000   0.0000   0.0000   0.2339
 -18.100  -0.4071   0.18845   0.18597  -0.0018  1.0000  0.0178  -1.6370   0.0000   0.0000   0.0000   0.2306
 -18.000  -0.4075   0.18745   0.18497  -0.0028  1.0000  0.0178  -1.6872   0.0000   0.0000   0.0000   0.2280
 -17.900  -0.4044   0.18582   0.18334  -0.0031  1.0000  0.0179  -1.6734   0.0000   0.0000   0.0000   0.2272
 -17.800  -0.3980   0.18458   0.18210  -0.0029  1.0000  0.0181  -1.5865   0.0000   0.0000   0.0000   0.2277
 -17.700  -0.3940   0.18368   0.18120  -0.0031  1.0000  0.0182  -1.5369   0.0000   0.0000   0.0000   0.2272
 -17.600  -0.3908   0.18283   0.18034  -0.0035  1.0000  0.0184  -1.5041   0.0000   0.0000   0.0000   0.2262
 -17.500  -0.3880   0.18197   0.17948  -0.0039  1.0000  0.0185  -1.4820   0.0000   0.0000   0.0000   0.2250
 -17.400  -0.3854   0.18112   0.17863  -0.0044  1.0000  0.0187  -1.4656   0.0000   0.0000   0.0000   0.2237
 -17.300  -0.3830   0.18026   0.17776  -0.0050  1.0000  0.0189  -1.4539   0.0000   0.0000   0.0000   0.2222
 -17.200  -0.3807   0.17937   0.17687  -0.0055  1.0000  0.0191  -1.4462   0.0000   0.0000   0.0000   0.2207
 -17.100  -0.3786   0.17847   0.17597  -0.0061  1.0000  0.0193  -1.4421   0.0000   0.0000   0.0000   0.2191
 -17.000  -0.3766   0.17756   0.17505  -0.0067  1.0000  0.0196  -1.4412   0.0000   0.0000   0.0000   0.2174
  -9.600  -0.6860   0.03646   0.03229  -0.0659  0.9912  0.0227  -5.5019   0.0000   0.0000   0.0000   0.1432
  -9.500  -0.6748   0.03531   0.03099  -0.0670  0.9884  0.0226  -5.4412   0.0000   0.0000   0.0000   0.1400
  -9.400  -0.6634   0.03416   0.02968  -0.0681  0.9859  0.0225  -5.3745   0.0000   0.0000   0.0000   0.1366
  -9.300  -0.6534   0.03297   0.02836  -0.0689  0.9820  0.0224  -5.3134   0.0000   0.0000   0.0000   0.1338
  -9.200  -0.6423   0.03165   0.02689  -0.0699  0.9791  0.0224  -5.2519   0.0000   0.0000   0.0000   0.1304
  -9.100  -0.6311   0.03025   0.02533  -0.0709  0.9764  0.0224  -5.1924   0.0000   0.0000   0.0000   0.1269
  -9.000  -0.6221   0.02893   0.02386  -0.0714  0.9709  0.0224  -5.1406   0.0000   0.0000   0.0000   0.1246
  -8.900  -0.6119   0.02729   0.02204  -0.0721  0.9672  0.0225  -5.0942   0.0000   0.0000   0.0000   0.1214
  -8.800  -0.6035   0.02566   0.02027  -0.0725  0.9612  0.0227  -5.0520   0.0000   0.0000   0.0000   0.1193
  -8.700  -0.5924   0.02437   0.01888  -0.0731  0.9566  0.0230  -4.9766   0.0000   0.0000   0.0000   0.1159
  -8.600  -0.5814   0.02353   0.01799  -0.0735  0.9507  0.0233  -4.8831   0.0000   0.0000   0.0000   0.1129
  -8.500  -0.5694   0.02284   0.01725  -0.0741  0.9452  0.0236  -4.7901   0.0000   0.0000   0.0000   0.1092
  -8.400  -0.5582   0.02223   0.01657  -0.0744  0.9381  0.0238  -4.7029   0.0000   0.0000   0.0000   0.1061
  -8.300  -0.5463   0.02159   0.01586  -0.0747  0.9319  0.0240  -4.6172   0.0000   0.0000   0.0000   0.1025
  -8.200  -0.5360   0.02102   0.01522  -0.0747  0.9235  0.0241  -4.5381   0.0000   0.0000   0.0000   0.0999
  -8.100  -0.5257   0.02049   0.01461  -0.0747  0.9153  0.0243  -4.4579   0.0000   0.0000   0.0000   0.0973
  -8.000  -0.5157   0.02001   0.01405  -0.0746  0.9073  0.0245  -4.3780   0.0000   0.0000   0.0000   0.0948
  -7.900  -0.5064   0.01956   0.01353  -0.0743  0.8985  0.0247  -4.3001   0.0000   0.0000   0.0000   0.0927
  -7.800  -0.4974   0.01915   0.01304  -0.0739  0.8898  0.0249  -4.2229   0.0000   0.0000   0.0000   0.0908
  -7.700  -0.4884   0.01876   0.01258  -0.0735  0.8818  0.0251  -4.1454   0.0000   0.0000   0.0000   0.0889
  -7.600  -0.4796   0.01839   0.01213  -0.0731  0.8740  0.0253  -4.0682   0.0000   0.0000   0.0000   0.0870
  -7.500  -0.4708   0.01804   0.01171  -0.0727  0.8661  0.0255  -3.9914   0.0000   0.0000   0.0000   0.0851
  -7.400  -0.4619   0.01773   0.01134  -0.0723  0.8591  0.0259  -3.9119   0.0000   0.0000   0.0000   0.0830
  -7.300  -0.4530   0.01745   0.01099  -0.0720  0.8520  0.0262  -3.8367   0.0000   0.0000   0.0000   0.0807
  -7.200  -0.4439   0.01719   0.01066  -0.0716  0.8454  0.0266  -3.7649   0.0000   0.0000   0.0000   0.0783
  -7.100  -0.4348   0.01694   0.01034  -0.0712  0.8392  0.0269  -3.6935   0.0000   0.0000   0.0000   0.0758
  -7.000  -0.4256   0.01668   0.01002  -0.0709  0.8331  0.0272  -3.6223   0.0000   0.0000   0.0000   0.0731
  -6.900  -0.4164   0.01644   0.00971  -0.0705  0.8275  0.0275  -3.5516   0.0000   0.0000   0.0000   0.0703
  -6.800  -0.4071   0.01620   0.00941  -0.0702  0.8219  0.0277  -3.4812   0.0000   0.0000   0.0000   0.0672
  -6.700  -0.3979   0.01594   0.00910  -0.0698  0.8166  0.0279  -3.4117   0.0000   0.0000   0.0000   0.0641
  -6.600  -0.3902   0.01544   0.00854  -0.0693  0.8117  0.0282  -3.3575   0.0000   0.0000   0.0000   0.0620
  -6.500  -0.3821   0.01504   0.00811  -0.0689  0.8066  0.0287  -3.2961   0.0000   0.0000   0.0000   0.0594
  -6.400  -0.3735   0.01473   0.00776  -0.0685  0.8024  0.0291  -3.2287   0.0000   0.0000   0.0000   0.0563
  -6.300  -0.3645   0.01447   0.00748  -0.0682  0.7974  0.0296  -3.1625   0.0000   0.0000   0.0000   0.0526
  -6.200  -0.3552   0.01426   0.00723  -0.0679  0.7932  0.0301  -3.0983   0.0000   0.0000   0.0000   0.0485
  -6.100  -0.3458   0.01406   0.00700  -0.0676  0.7893  0.0306  -3.0336   0.0000   0.0000   0.0000   0.0440
  -6.000  -0.3361   0.01387   0.00678  -0.0674  0.7849  0.0312  -2.9688   0.0000   0.0000   0.0000   0.0391
  -5.900  -0.3265   0.01370   0.00656  -0.0671  0.7811  0.0319  -2.9047   0.0000   0.0000   0.0000   0.0339
  -5.800  -0.3167   0.01353   0.00635  -0.0669  0.7776  0.0326  -2.8403   0.0000   0.0000   0.0000   0.0283
  -5.700  -0.3067   0.01338   0.00616  -0.0667  0.7736  0.0335  -2.7748   0.0000   0.0000   0.0000   0.0220
  -5.600  -0.2966   0.01326   0.00598  -0.0665  0.7700  0.0343  -2.7087   0.0000   0.0000   0.0000   0.0151
  -5.400  -0.2777   0.01279   0.00547  -0.0660  0.7633  0.0374  -2.5887   0.0000   0.0000   0.0000   0.0016
  -5.300  -0.2677   0.01264   0.00530  -0.0658  0.7599  0.0392  -2.5244   0.0000   0.0000   0.0000  -0.0068
  -5.200  -0.2575   0.01250   0.00512  -0.0656  0.7570  0.0413  -2.4625   0.0000   0.0000   0.0000  -0.0159
  -5.100  -0.2478   0.01228   0.00489  -0.0654  0.7541  0.0453  -2.4082   0.0000   0.0000   0.0000  -0.0249
  -5.000  -0.2382   0.01203   0.00467  -0.0651  0.7507  0.0536  -2.3647   0.0000   0.0000   0.0000  -0.0348
  -4.900  -0.2292   0.01169   0.00444  -0.0648  0.7477  0.0744  -2.3229   0.0000   0.0000   0.0000  -0.0444
  -4.800  -0.2199   0.01143   0.00427  -0.0646  0.7450  0.0977  -2.2710   0.0000   0.0000   0.0000  -0.0556
  -4.700  -0.2100   0.01125   0.00414  -0.0645  0.7424  0.1165  -2.2132   0.0000   0.0000   0.0000  -0.0689
  -4.600  -0.2000   0.01107   0.00403  -0.0644  0.7393  0.1341  -2.1531   0.0000   0.0000   0.0000  -0.0840
  -4.500  -0.1900   0.01091   0.00393  -0.0643  0.7365  0.1517  -2.0920   0.0000   0.0000   0.0000  -0.1006
  -4.400  -0.1799   0.01076   0.00383  -0.0642  0.7340  0.1706  -2.0303   0.0000   0.0000   0.0000  -0.1192
  -4.300  -0.1699   0.01062   0.00373  -0.0640  0.7318  0.1902  -1.9687   0.0000   0.0000   0.0000  -0.1399
  -4.200  -0.1598   0.01046   0.00364  -0.0639  0.7290  0.2105  -1.9070   0.0000   0.0000   0.0000  -0.1636
  -4.100  -0.1498   0.01030   0.00356  -0.0638  0.7262  0.2325  -1.8456   0.0000   0.0000   0.0000  -0.1902
  -4.000  -0.1397   0.01014   0.00347  -0.0637  0.7237  0.2556  -1.7845   0.0000   0.0000   0.0000  -0.2206
  -3.900  -0.1297   0.00999   0.00339  -0.0636  0.7215  0.2801  -1.7237   0.0000   0.0000   0.0000  -0.2554
  -3.800  -0.1197   0.00986   0.00332  -0.0635  0.7195  0.3058  -1.6633   0.0000   0.0000   0.0000  -0.2961
  -3.700  -0.1096   0.00972   0.00327  -0.0634  0.7168  0.3314  -1.6030   0.0000   0.0000   0.0000  -0.3449
  -3.600  -0.0994   0.00960   0.00323  -0.0633  0.7143  0.3564  -1.5428   0.0000   0.0000   0.0000  -0.4043
  -3.500  -0.0891   0.00951   0.00320  -0.0632  0.7120  0.3801  -1.4827   0.0000   0.0000   0.0000  -0.4781
  -3.400  -0.0786   0.00945   0.00317  -0.0630  0.7100  0.4005  -1.4227   0.0000   0.0000   0.0000  -0.5728
  -3.200  -0.0573   0.00936   0.00313  -0.0629  0.7057  0.4342  -1.3129   0.0000   0.0000   0.0000  -0.8735
  -3.100  -0.0466   0.00932   0.00311  -0.0628  0.7033  0.4490  -1.2594   0.0000   0.0000   0.0000  -1.1290
  -3.000  -0.0358   0.00929   0.00309  -0.0627  0.7011  0.4628  -1.2064   0.0000   0.0000   0.0000  -1.5395
  -2.900  -0.0250   0.00927   0.00307  -0.0626  0.6991  0.4757  -1.1537   0.0000   0.0000   0.0000  -2.3049
  -2.800  -0.0142   0.00925   0.00305  -0.0626  0.6973  0.4873  -1.1014   0.0000   0.0000   0.0000  -4.2384
  -2.700  -0.0034   0.00923   0.00304  -0.0625  0.6953  0.4975  -1.0497   0.0000   0.0000   0.0000  -18.5348
  -2.600   0.0075   0.00920   0.00303  -0.0624  0.6930  0.5066  -0.9986   0.0000   0.0000   0.0000   8.7807
  -2.500   0.0184   0.00918   0.00302  -0.0624  0.6908  0.5158  -0.9479   0.0000   0.0000   0.0000   3.7085
  -2.400   0.0293   0.00917   0.00300  -0.0623  0.6888  0.5252  -0.8977   0.0000   0.0000   0.0000   2.4131
  -2.300   0.0402   0.00916   0.00298  -0.0622  0.6869  0.5342  -0.8481   0.0000   0.0000   0.0000   1.8237
  -2.200   0.0511   0.00915   0.00296  -0.0622  0.6853  0.5424  -0.7990   0.0000   0.0000   0.0000   1.4851
  -2.100   0.0621   0.00914   0.00295  -0.0621  0.6834  0.5501  -0.7505   0.0000   0.0000   0.0000   1.2647
  -2.000   0.0730   0.00912   0.00294  -0.0621  0.6812  0.5572  -0.7027   0.0000   0.0000   0.0000   1.1114
  -1.900   0.0840   0.00910   0.00293  -0.0621  0.6791  0.5640  -0.6554   0.0000   0.0000   0.0000   0.9978
  -1.800   0.0951   0.00909   0.00291  -0.0620  0.6772  0.5712  -0.6086   0.0000   0.0000   0.0000   0.9099
  -1.700   0.1060   0.00908   0.00290  -0.0620  0.6754  0.5778  -0.5673   0.0000   0.0000   0.0000   0.8407
  -1.600   0.1171   0.00908   0.00288  -0.0619  0.6738  0.5851  -0.5741   0.0000   0.0000   0.0000   0.7840
  -1.500   0.1281   0.00907   0.00287  -0.0619  0.6721  0.5920  -0.5809   0.0000   0.0000   0.0000   0.7375
  -1.400   0.1390   0.00905   0.00287  -0.0618  0.6700  0.5991  -0.5875   0.0000   0.0000   0.0000   0.6984
  -1.300   0.1499   0.00903   0.00287  -0.0618  0.6680  0.6067  -0.5943   0.0000   0.0000   0.0000   0.6650
  -1.200   0.1608   0.00901   0.00286  -0.0617  0.6661  0.6138  -0.6010   0.0000   0.0000   0.0000   0.6361
  -1.100   0.1719   0.00901   0.00285  -0.0617  0.6643  0.6215  -0.6078   0.0000   0.0000   0.0000   0.6108
  -1.000   0.1828   0.00900   0.00285  -0.0616  0.6627  0.6294  -0.6146   0.0000   0.0000   0.0000   0.5885
  -0.900   0.1938   0.00900   0.00284  -0.0616  0.6612  0.6371  -0.6215   0.0000   0.0000   0.0000   0.5688
  -0.800   0.2047   0.00898   0.00285  -0.0615  0.6593  0.6453  -0.6284   0.0000   0.0000   0.0000   0.5513
  -0.700   0.2155   0.00896   0.00286  -0.0615  0.6573  0.6535  -0.6353   0.0000   0.0000   0.0000   0.5356
  -0.600   0.2263   0.00893   0.00286  -0.0614  0.6553  0.6617  -0.6422   0.0000   0.0000   0.0000   0.5213
  -0.500   0.2372   0.00892   0.00286  -0.0613  0.6536  0.6705  -0.6492   0.0000   0.0000   0.0000   0.5083
  -0.400   0.2482   0.00891   0.00286  -0.0613  0.6519  0.6798  -0.6562   0.0000   0.0000   0.0000   0.4964
  -0.300   0.2590   0.00890   0.00286  -0.0612  0.6504  0.6889  -0.6632   0.0000   0.0000   0.0000   0.4855
  -0.200   0.2698   0.00890   0.00287  -0.0611  0.6489  0.6985  -0.6702   0.0000   0.0000   0.0000   0.4755
  -0.100   0.2804   0.00887   0.00289  -0.0610  0.6469  0.7087  -0.6772   0.0000   0.0000   0.0000   0.4664
   0.000   0.2910   0.00884   0.00291  -0.0608  0.6449  0.7196  -0.6842   0.0000   0.0000   0.0000   0.4578
   0.100   0.3016   0.00882   0.00292  -0.0607  0.6431  0.7310  -0.6913   0.0000   0.0000   0.0000   0.4498
   0.200   0.3122   0.00880   0.00294  -0.0605  0.6414  0.7431  -0.6985   0.0000   0.0000   0.0000   0.4424
   0.300   0.3228   0.00878   0.00295  -0.0604  0.6398  0.7558  -0.7056   0.0000   0.0000   0.0000   0.4353
   0.400   0.3333   0.00877   0.00296  -0.0602  0.6384  0.7692  -0.7127   0.0000   0.0000   0.0000   0.4287
   0.500   0.3437   0.00875   0.00299  -0.0600  0.6368  0.7834  -0.7197   0.0000   0.0000   0.0000   0.4225
   0.600   0.3538   0.00872   0.00302  -0.0597  0.6348  0.7982  -0.7268   0.0000   0.0000   0.0000   0.4166
   0.700   0.3640   0.00869   0.00305  -0.0594  0.6329  0.8135  -0.7339   0.0000   0.0000   0.0000   0.4110
   0.800   0.3741   0.00866   0.00307  -0.0591  0.6311  0.8294  -0.7410   0.0000   0.0000   0.0000   0.4057
   0.900   0.3843   0.00864   0.00310  -0.0588  0.6294  0.8461  -0.7483   0.0000   0.0000   0.0000   0.4006
   1.000   0.3948   0.00863   0.00312  -0.0585  0.6279  0.8627  -0.7557   0.0000   0.0000   0.0000   0.3957
   1.100   0.4056   0.00864   0.00315  -0.0583  0.6265  0.8796  -0.7633   0.0000   0.0000   0.0000   0.3911
   1.200   0.4171   0.00865   0.00319  -0.0583  0.6248  0.8961  -0.7712   0.0000   0.0000   0.0000   0.3869
   1.300   0.4297   0.00865   0.00324  -0.0585  0.6228  0.9112  -0.7798   0.0000   0.0000   0.0000   0.3831
   1.400   0.4436   0.00867   0.00328  -0.0590  0.6208  0.9249  -0.7892   0.0000   0.0000   0.0000   0.3799
   1.500   0.4584   0.00869   0.00330  -0.0597  0.6189  0.9366  -0.7991   0.0000   0.0000   0.0000   0.3770
   1.600   0.4737   0.00873   0.00332  -0.0605  0.6172  0.9467  -0.8092   0.0000   0.0000   0.0000   0.3745
   1.700   0.4888   0.00876   0.00334  -0.0613  0.6157  0.9557  -0.8195   0.0000   0.0000   0.0000   0.3721
   1.800   0.5051   0.00882   0.00336  -0.0624  0.6142  0.9628  -0.8305   0.0000   0.0000   0.0000   0.3701
   1.900   0.5210   0.00884   0.00340  -0.0634  0.6121  0.9692  -0.8412   0.0000   0.0000   0.0000   0.3682
   2.000   0.5367   0.00886   0.00344  -0.0644  0.6100  0.9755  -0.8518   0.0000   0.0000   0.0000   0.3664
   2.200   0.5718   0.00891   0.00347  -0.0672  0.6061  0.9832  -0.8758   0.0000   0.0000   0.0000   0.3637
   2.300   0.5886   0.00894   0.00348  -0.0684  0.6044  0.9872  -0.8878   0.0000   0.0000   0.0000   0.3624
   2.400   0.6067   0.00898   0.00349  -0.0699  0.6028  0.9899  -0.9007   0.0000   0.0000   0.0000   0.3613
   2.500   0.6241   0.00900   0.00352  -0.0713  0.6007  0.9934  -0.9134   0.0000   0.0000   0.0000   0.3603
   2.600   0.6417   0.00901   0.00355  -0.0728  0.5984  0.9966  -0.9267   0.0000   0.0000   0.0000   0.3593
   2.700   0.6596   0.00902   0.00356  -0.0743  0.5962  0.9996  -0.9415   0.0000   0.0000   0.0000   0.3585
   2.800   0.6703   0.00904   0.00358  -0.0743  0.5943  1.0000  -0.9526   0.0000   0.0000   0.0000   0.3566
   2.900   0.6797   0.00908   0.00359  -0.0740  0.5926  1.0000  -0.9634   0.0000   0.0000   0.0000   0.3545
   3.000   0.6893   0.00912   0.00361  -0.0737  0.5910  1.0000  -0.9748   0.0000   0.0000   0.0000   0.3525
   3.100   0.6982   0.00915   0.00366  -0.0734  0.5887  1.0000  -0.9861   0.0000   0.0000   0.0000   0.3505
   3.200   0.7073   0.00917   0.00370  -0.0730  0.5863  1.0000  -0.9982   0.0000   0.0000   0.0000   0.3486
   3.300   0.7166   0.00920   0.00373  -0.0727  0.5840  1.0000  -1.0109   0.0000   0.0000   0.0000   0.3467
   3.400   0.7262   0.00923   0.00374  -0.0724  0.5818  1.0000  -1.0249   0.0000   0.0000   0.0000   0.3448
   3.500   0.7360   0.00926   0.00375  -0.0722  0.5799  1.0000  -1.0398   0.0000   0.0000   0.0000   0.3431
   3.600   0.7453   0.00930   0.00380  -0.0718  0.5775  1.0000  -1.0548   0.0000   0.0000   0.0000   0.3413
   3.700   0.7545   0.00932   0.00384  -0.0715  0.5747  1.0000  -1.0700   0.0000   0.0000   0.0000   0.3396
   3.800   0.7640   0.00934   0.00387  -0.0712  0.5721  1.0000  -1.0865   0.0000   0.0000   0.0000   0.3379
   3.900   0.7737   0.00937   0.00388  -0.0709  0.5697  1.0000  -1.1041   0.0000   0.0000   0.0000   0.3363
   4.000   0.7837   0.00941   0.00390  -0.0707  0.5677  1.0000  -1.1224   0.0000   0.0000   0.0000   0.3347
   4.100   0.7929   0.00944   0.00396  -0.0703  0.5649  1.0000  -1.1413   0.0000   0.0000   0.0000   0.3331
   4.200   0.8023   0.00946   0.00401  -0.0700  0.5621  1.0000  -1.1618   0.0000   0.0000   0.0000   0.3316
   4.300   0.8120   0.00949   0.00403  -0.0697  0.5594  1.0000  -1.1831   0.0000   0.0000   0.0000   0.3301
   4.400   0.8219   0.00952   0.00405  -0.0695  0.5571  1.0000  -1.2060   0.0000   0.0000   0.0000   0.3287
   4.500   0.8315   0.00956   0.00409  -0.0692  0.5546  1.0000  -1.2287   0.0000   0.0000   0.0000   0.3272
   4.600   0.8408   0.00958   0.00414  -0.0688  0.5514  1.0000  -1.2520   0.0000   0.0000   0.0000   0.3258
   4.700   0.8504   0.00961   0.00418  -0.0685  0.5484  1.0000  -1.2768   0.0000   0.0000   0.0000   0.3244
   4.800   0.8602   0.00964   0.00420  -0.0683  0.5458  1.0000  -1.3028   0.0000   0.0000   0.0000   0.3231
   4.900   0.8699   0.00968   0.00425  -0.0680  0.5431  1.0000  -1.3302   0.0000   0.0000   0.0000   0.3218
   5.000   0.8793   0.00970   0.00431  -0.0677  0.5397  1.0000  -1.3621   0.0000   0.0000   0.0000   0.3205
   5.100   0.8889   0.00973   0.00434  -0.0674  0.5366  1.0000  -1.3950   0.0000   0.0000   0.0000   0.3192
   5.200   0.8987   0.00977   0.00437  -0.0671  0.5338  1.0000  -1.4308   0.0000   0.0000   0.0000   0.3180
   5.300   0.9083   0.00980   0.00442  -0.0668  0.5306  1.0000  -1.4667   0.0000   0.0000   0.0000   0.3168
   5.400   0.9178   0.00983   0.00448  -0.0665  0.5269  1.0000  -1.5025   0.0000   0.0000   0.0000   0.3155
   5.500   0.9274   0.00986   0.00451  -0.0662  0.5235  1.0000  -1.5391   0.0000   0.0000   0.0000   0.3144
   5.600   0.9371   0.00990   0.00454  -0.0659  0.5202  1.0000  -1.6054   0.0000   0.0000   0.0000   0.3132
   5.700   0.9466   0.00993   0.00462  -0.0656  0.5160  1.0000  -1.6750   0.0000   0.0000   0.0000   0.3121
   5.800   0.9562   0.00996   0.00466  -0.0653  0.5122  1.0000  -1.7461   0.0000   0.0000   0.0000   0.3110
   5.900   0.9658   0.01001   0.00470  -0.0651  0.5087  1.0000  -1.8184   0.0000   0.0000   0.0000   0.3099
   6.000   0.9754   0.01004   0.00477  -0.0648  0.5042  1.0000  -1.8909   0.0000   0.0000   0.0000   0.3088
   6.100   0.9849   0.01008   0.00482  -0.0645  0.5002  1.0000  -1.9645   0.0000   0.0000   0.0000   0.3077
   6.200   0.9945   0.01013   0.00487  -0.0642  0.4959  1.0000  -2.0430   0.0000   0.0000   0.0000   0.3067
   6.300   1.0040   0.01017   0.00494  -0.0639  0.4910  1.0000  -2.1242   0.0000   0.0000   0.0000   0.3057
   6.400   1.0133   0.01023   0.00498  -0.0635  0.4866  1.0000  -2.2060   0.0000   0.0000   0.0000   0.3046
   6.500   1.0228   0.01027   0.00506  -0.0632  0.4807  1.0000  -2.2888   0.0000   0.0000   0.0000   0.3036
   6.600   1.0318   0.01034   0.00512  -0.0629  0.4754  1.0000  -2.3716   0.0000   0.0000   0.0000   0.3026
   6.700   1.0411   0.01039   0.00520  -0.0625  0.4688  1.0000  -2.4558   0.0000   0.0000   0.0000   0.3016
   6.800   1.0501   0.01046   0.00526  -0.0622  0.4627  1.0000  -2.5398   0.0000   0.0000   0.0000   0.3006
   6.900   1.0592   0.01053   0.00534  -0.0618  0.4557  1.0000  -2.6253   0.0000   0.0000   0.0000   0.2997
   7.000   1.0682   0.01061   0.00542  -0.0614  0.4488  1.0000  -2.7108   0.0000   0.0000   0.0000   0.2987
   7.100   1.0767   0.01071   0.00551  -0.0610  0.4412  1.0000  -2.7958   0.0000   0.0000   0.0000   0.2977
   7.200   1.0854   0.01080   0.00560  -0.0606  0.4322  1.0000  -2.8821   0.0000   0.0000   0.0000   0.2967
   7.300   1.0937   0.01092   0.00570  -0.0601  0.4221  1.0000  -2.9673   0.0000   0.0000   0.0000   0.2957
   7.400   1.1016   0.01105   0.00581  -0.0595  0.4107  1.0000  -3.0516   0.0000   0.0000   0.0000   0.2947
   7.500   1.1090   0.01121   0.00594  -0.0589  0.3979  1.0000  -3.1348   0.0000   0.0000   0.0000   0.2937
   7.700   1.1224   0.01162   0.00623  -0.0575  0.3665  1.0000  -3.2963   0.0000   0.0000   0.0000   0.2915
   7.800   1.1278   0.01189   0.00641  -0.0566  0.3479  1.0000  -3.3724   0.0000   0.0000   0.0000   0.2903
   7.900   1.1326   0.01220   0.00662  -0.0556  0.3272  1.0000  -3.4459   0.0000   0.0000   0.0000   0.2891
   8.000   1.1368   0.01256   0.00686  -0.0546  0.3054  1.0000  -3.5169   0.0000   0.0000   0.0000   0.2879
   8.100   1.1405   0.01295   0.00714  -0.0534  0.2838  1.0000  -3.5856   0.0000   0.0000   0.0000   0.2866
   8.200   1.1438   0.01335   0.00743  -0.0523  0.2630  1.0000  -3.6530   0.0000   0.0000   0.0000   0.2853
   8.300   1.1471   0.01376   0.00773  -0.0511  0.2439  1.0000  -3.7201   0.0000   0.0000   0.0000   0.2841
   8.400   1.1503   0.01417   0.00804  -0.0500  0.2263  1.0000  -3.7876   0.0000   0.0000   0.0000   0.2828
   8.500   1.1535   0.01457   0.00835  -0.0489  0.2096  1.0000  -3.8551   0.0000   0.0000   0.0000   0.2816
   8.600   1.1565   0.01497   0.00866  -0.0477  0.1936  1.0000  -3.9215   0.0000   0.0000   0.0000   0.2803
   8.700   1.1591   0.01538   0.00899  -0.0465  0.1791  1.0000  -3.9867   0.0000   0.0000   0.0000   0.2791
   8.800   1.1620   0.01575   0.00930  -0.0453  0.1656  1.0000  -4.0532   0.0000   0.0000   0.0000   0.2778
   8.900   1.1641   0.01611   0.00960  -0.0439  0.1539  1.0000  -4.1165   0.0000   0.0000   0.0000   0.2765
   9.000   1.1660   0.01647   0.00990  -0.0426  0.1434  1.0000  -4.1788   0.0000   0.0000   0.0000   0.2751
   9.100   1.1678   0.01683   0.01021  -0.0412  0.1337  1.0000  -4.2460   0.0000   0.0000   0.0000   0.2737
   9.200   1.1696   0.01721   0.01054  -0.0399  0.1246  1.0000  -4.3129   0.0000   0.0000   0.0000   0.2724
   9.300   1.1719   0.01758   0.01087  -0.0387  0.1157  1.0000  -4.3822   0.0000   0.0000   0.0000   0.2712
   9.400   1.1742   0.01796   0.01122  -0.0375  0.1075  1.0000  -4.4523   0.0000   0.0000   0.0000   0.2700
   9.500   1.1764   0.01836   0.01158  -0.0364  0.1000  1.0000  -4.5215   0.0000   0.0000   0.0000   0.2688
   9.600   1.1782   0.01878   0.01196  -0.0352  0.0929  1.0000  -4.5886   0.0000   0.0000   0.0000   0.2676
   9.700   1.1807   0.01919   0.01234  -0.0342  0.0860  1.0000  -4.6595   0.0000   0.0000   0.0000   0.2665
   9.800   1.1831   0.01961   0.01274  -0.0332  0.0799  1.0000  -4.7295   0.0000   0.0000   0.0000   0.2655
   9.900   1.1848   0.02009   0.01319  -0.0321  0.0740  1.0000  -4.7954   0.0000   0.0000   0.0000   0.2644
  10.000   1.1876   0.02051   0.01360  -0.0312  0.0684  1.0000  -4.8672   0.0000   0.0000   0.0000   0.2634
  10.100   1.1891   0.02103   0.01409  -0.0303  0.0631  1.0000  -4.9313   0.0000   0.0000   0.0000   0.2624
  10.200   1.1913   0.02152   0.01456  -0.0294  0.0574  1.0000  -4.9987   0.0000   0.0000   0.0000   0.2615
  10.300   1.1928   0.02207   0.01509  -0.0285  0.0519  1.0000  -5.0607   0.0000   0.0000   0.0000   0.2605
  10.400   1.1931   0.02272   0.01570  -0.0276  0.0461  1.0000  -5.1146   0.0000   0.0000   0.0000   0.2596
  10.500   1.1935   0.02338   0.01634  -0.0266  0.0398  1.0000  -5.1658   0.0000   0.0000   0.0000   0.2586
  10.600   1.1928   0.02415   0.01707  -0.0257  0.0335  1.0000  -5.2067   0.0000   0.0000   0.0000   0.2577
  10.700   1.1915   0.02499   0.01788  -0.0247  0.0282  1.0000  -5.2392   0.0000   0.0000   0.0000   0.2567
  10.800   1.1892   0.02592   0.01878  -0.0238  0.0247  1.0000  -5.2660   0.0000   0.0000   0.0000   0.2558
  10.900   1.1905   0.02662   0.01951  -0.0231  0.0223  1.0000  -5.3130   0.0000   0.0000   0.0000   0.2550
  11.000   1.1908   0.02740   0.02029  -0.0224  0.0208  1.0000  -5.3599   0.0000   0.0000   0.0000   0.2543
  11.100   1.1903   0.02828   0.02117  -0.0217  0.0196  1.0000  -5.3977   0.0000   0.0000   0.0000   0.2535
  11.200   1.1928   0.02893   0.02186  -0.0212  0.0186  1.0000  -5.4565   0.0000   0.0000   0.0000   0.2529
  11.300   1.1950   0.02960   0.02256  -0.0207  0.0178  1.0000  -5.5162   0.0000   0.0000   0.0000   0.2522
  11.400   1.1969   0.03031   0.02329  -0.0202  0.0171  1.0000  -5.5768   0.0000   0.0000   0.0000   0.2517
  11.500   1.1979   0.03111   0.02410  -0.0198  0.0166  1.0000  -5.6325   0.0000   0.0000   0.0000   0.2511
  11.600   1.1975   0.03204   0.02505  -0.0192  0.0161  1.0000  -5.6764   0.0000   0.0000   0.0000   0.2504
  11.700   1.1978   0.03292   0.02596  -0.0188  0.0156  1.0000  -5.7226   0.0000   0.0000   0.0000   0.2499
  11.800   1.2001   0.03364   0.02671  -0.0184  0.0153  1.0000  -5.7834   0.0000   0.0000   0.0000   0.2493
  11.900   1.2020   0.03440   0.02751  -0.0180  0.0149  1.0000  -5.8413   0.0000   0.0000   0.0000   0.2488
  12.000   1.2035   0.03520   0.02835  -0.0177  0.0146  1.0000  -5.8972   0.0000   0.0000   0.0000   0.2483
  12.100   1.2049   0.03602   0.02921  -0.0173  0.0143  1.0000  -5.9529   0.0000   0.0000   0.0000   0.2478
  12.200   1.2063   0.03686   0.03007  -0.0170  0.0141  1.0000  -6.0087   0.0000   0.0000   0.0000   0.2474
  12.300   1.2074   0.03771   0.03096  -0.0167  0.0138  1.0000  -6.0643   0.0000   0.0000   0.0000   0.2469
  12.400   1.2084   0.03860   0.03187  -0.0164  0.0136  1.0000  -6.1191   0.0000   0.0000   0.0000   0.2465
  12.500   1.2091   0.03952   0.03282  -0.0161  0.0134  1.0000  -6.1721   0.0000   0.0000   0.0000   0.2460
  12.600   1.2093   0.04049   0.03382  -0.0158  0.0132  1.0000  -6.2221   0.0000   0.0000   0.0000   0.2456
  12.700   1.2090   0.04152   0.03488  -0.0155  0.0131  1.0000  -6.2676   0.0000   0.0000   0.0000   0.2452
  12.800   1.2080   0.04261   0.03600  -0.0152  0.0129  1.0000  -6.3075   0.0000   0.0000   0.0000   0.2448
  12.900   1.2064   0.04379   0.03720  -0.0150  0.0128  1.0000  -6.3410   0.0000   0.0000   0.0000   0.2444
  13.000   1.2042   0.04503   0.03848  -0.0147  0.0126  1.0000  -6.3679   0.0000   0.0000   0.0000   0.2440
  13.100   1.2035   0.04614   0.03962  -0.0145  0.0125  1.0000  -6.4050   0.0000   0.0000   0.0000   0.2436
  13.200   1.2046   0.04709   0.04060  -0.0143  0.0124  1.0000  -6.4561   0.0000   0.0000   0.0000   0.2432
  13.300   1.2056   0.04805   0.04160  -0.0141  0.0123  1.0000  -6.5062   0.0000   0.0000   0.0000   0.2429
  13.400   1.2064   0.04904   0.04263  -0.0139  0.0122  1.0000  -6.5550   0.0000   0.0000   0.0000   0.2426
  13.500   1.2072   0.05004   0.04367  -0.0138  0.0121  1.0000  -6.6032   0.0000   0.0000   0.0000   0.2422
  13.600   1.2080   0.05106   0.04473  -0.0137  0.0120  1.0000  -6.6508   0.0000   0.0000   0.0000   0.2419
  13.700   1.2087   0.05209   0.04580  -0.0135  0.0119  1.0000  -6.6979   0.0000   0.0000   0.0000   0.2416
  13.800   1.2094   0.05312   0.04687  -0.0134  0.0118  1.0000  -6.7450   0.0000   0.0000   0.0000   0.2413
  13.900   1.2102   0.05417   0.04795  -0.0133  0.0117  1.0000  -6.7917   0.0000   0.0000   0.0000   0.2411
  14.000   1.2109   0.05522   0.04904  -0.0132  0.0116  1.0000  -6.8385   0.0000   0.0000   0.0000   0.2408
  14.100   1.2117   0.05628   0.05013  -0.0132  0.0115  1.0000  -6.8856   0.0000   0.0000   0.0000   0.2405
  14.200   1.2125   0.05734   0.05123  -0.0131  0.0114  1.0000  -6.9330   0.0000   0.0000   0.0000   0.2403
  14.300   1.2134   0.05840   0.05233  -0.0130  0.0113  1.0000  -6.9814   0.0000   0.0000   0.0000   0.2400
  14.400   1.2144   0.05946   0.05342  -0.0130  0.0112  1.0000  -7.0306   0.0000   0.0000   0.0000   0.2398
  14.500   1.2153   0.06054   0.05453  -0.0130  0.0111  1.0000  -7.0802   0.0000   0.0000   0.0000   0.2395
  14.600   1.2164   0.06161   0.05563  -0.0130  0.0110  1.0000  -7.1308   0.0000   0.0000   0.0000   0.2393
  14.700   1.2174   0.06269   0.05674  -0.0130  0.0109  1.0000  -7.1825   0.0000   0.0000   0.0000   0.2391
  14.800   1.2184   0.06378   0.05787  -0.0130  0.0108  1.0000  -7.2345   0.0000   0.0000   0.0000   0.2390
  14.900   1.2194   0.06489   0.05900  -0.0131  0.0107  1.0000  -7.2873   0.0000   0.0000   0.0000   0.2388
  15.000   1.2204   0.06599   0.06014  -0.0131  0.0106  1.0000  -7.3409   0.0000   0.0000   0.0000   0.2386
  15.100   1.2214   0.06711   0.06130  -0.0132  0.0105  1.0000  -7.3944   0.0000   0.0000   0.0000   0.2385
  15.200   1.2223   0.06825   0.06246  -0.0133  0.0104  1.0000  -7.4479   0.0000   0.0000   0.0000   0.2383
  15.300   1.2231   0.06938   0.06361  -0.0133  0.0104  1.0000  -7.5014   0.0000   0.0000   0.0000   0.2382
  15.400   1.2240   0.07052   0.06478  -0.0134  0.0103  1.0000  -7.5538   0.0000   0.0000   0.0000   0.2380
  15.500   1.2247   0.07167   0.06594  -0.0135  0.0102  1.0000  -7.6042   0.0000   0.0000   0.0000   0.2379
  15.600   1.2255   0.07280   0.06710  -0.0134  0.0101  1.0000  -7.6519   0.0000   0.0000   0.0000   0.2377
  15.700   1.2264   0.07390   0.06822  -0.0133  0.0100  1.0000  -7.6956   0.0000   0.0000   0.0000   0.2374
  15.800   1.2276   0.07496   0.06931  -0.0131  0.0099  1.0000  -7.7361   0.0000   0.0000   0.0000   0.2370
  15.900   1.2286   0.07607   0.07045  -0.0129  0.0098  1.0000  -7.7795   0.0000   0.0000   0.0000   0.2366
  16.000   1.2290   0.07737   0.07181  -0.0131  0.0098  1.0000  -7.8279   0.0000   0.0000   0.0000   0.2366
  16.100   1.2293   0.07870   0.07320  -0.0134  0.0097  1.0000  -7.8743   0.0000   0.0000   0.0000   0.2366
  16.200   1.2295   0.08004   0.07460  -0.0136  0.0097  1.0000  -7.9188   0.0000   0.0000   0.0000   0.2366
  16.300   1.2296   0.08142   0.07604  -0.0139  0.0097  1.0000  -7.9616   0.0000   0.0000   0.0000   0.2366
  16.400   1.2295   0.08283   0.07752  -0.0142  0.0097  1.0000  -8.0018   0.0000   0.0000   0.0000   0.2366
  16.500   1.2292   0.08429   0.07904  -0.0145  0.0096  1.0000  -8.0396   0.0000   0.0000   0.0000   0.2367
  16.600   1.2287   0.08579   0.08060  -0.0149  0.0096  1.0000  -8.0753   0.0000   0.0000   0.0000   0.2368
  16.700   1.2279   0.08734   0.08221  -0.0153  0.0096  1.0000  -8.1079   0.0000   0.0000   0.0000   0.2369
  16.800   1.2269   0.08893   0.08387  -0.0157  0.0096  1.0000  -8.1378   0.0000   0.0000   0.0000   0.2370
  16.900   1.2258   0.09057   0.08557  -0.0161  0.0096  1.0000  -8.1651   0.0000   0.0000   0.0000   0.2372
  17.000   1.2243   0.09226   0.08734  -0.0167  0.0095  1.0000  -8.1891   0.0000   0.0000   0.0000   0.2374
  17.100   1.2227   0.09401   0.08915  -0.0172  0.0095  1.0000  -8.2108   0.0000   0.0000   0.0000   0.2377
  17.200   1.2207   0.09582   0.09102  -0.0178  0.0095  1.0000  -8.2288   0.0000   0.0000   0.0000   0.2380
  17.300   1.2186   0.09767   0.09295  -0.0185  0.0095  1.0000  -8.2442   0.0000   0.0000   0.0000   0.2384
  17.400   1.2162   0.09960   0.09494  -0.0192  0.0095  1.0000  -8.2559   0.0000   0.0000   0.0000   0.2388
  17.500   1.2136   0.10157   0.09699  -0.0199  0.0095  1.0000  -8.2647   0.0000   0.0000   0.0000   0.2392
  17.600   1.2107   0.10361   0.09910  -0.0208  0.0095  1.0000  -8.2697   0.0000   0.0000   0.0000   0.2397
  17.700   1.2076   0.10569   0.10125  -0.0216  0.0095  1.0000  -8.2718   0.0000   0.0000   0.0000   0.2403
  17.800   1.2043   0.10785   0.10349  -0.0226  0.0095  1.0000  -8.2702   0.0000   0.0000   0.0000   0.2409
  17.900   1.2008   0.11007   0.10577  -0.0236  0.0095  1.0000  -8.2656   0.0000   0.0000   0.0000   0.2416
  18.000   1.1971   0.11234   0.10812  -0.0246  0.0095  1.0000  -8.2574   0.0000   0.0000   0.0000   0.2423
  18.100   1.1932   0.11468   0.11053  -0.0258  0.0095  1.0000  -8.2460   0.0000   0.0000   0.0000   0.2431
  18.200   1.1891   0.11707   0.11299  -0.0270  0.0095  1.0000  -8.2313   0.0000   0.0000   0.0000   0.2440
  18.300   1.1848   0.11953   0.11552  -0.0282  0.0095  1.0000  -8.2127   0.0000   0.0000   0.0000   0.2449
  18.400   1.1804   0.12204   0.11811  -0.0296  0.0095  1.0000  -8.1909   0.0000   0.0000   0.0000   0.2459
  18.500   1.1758   0.12461   0.12074  -0.0310  0.0095  1.0000  -8.1656   0.0000   0.0000   0.0000   0.2470
  18.600   1.1710   0.12725   0.12345  -0.0324  0.0095  1.0000  -8.1364   0.0000   0.0000   0.0000   0.2481
  18.700   1.1661   0.12994   0.12621  -0.0340  0.0095  1.0000  -8.1037   0.0000   0.0000   0.0000   0.2494
  18.800   1.1611   0.13269   0.12903  -0.0356  0.0095  1.0000  -8.0675   0.0000   0.0000   0.0000   0.2507
  18.900   1.1560   0.13549   0.13190  -0.0372  0.0095  1.0000  -8.0274   0.0000   0.0000   0.0000   0.2521
  19.000   1.1507   0.13836   0.13484  -0.0390  0.0096  1.0000  -7.9833   0.0000   0.0000   0.0000   0.2535
  19.100   1.1454   0.14129   0.13784  -0.0408  0.0096  1.0000  -7.9350   0.0000   0.0000   0.0000   0.2551
  19.200   1.1400   0.14428   0.14089  -0.0426  0.0096  1.0000  -7.8827   0.0000   0.0000   0.0000   0.2567
  19.300   1.1345   0.14733   0.14399  -0.0446  0.0096  1.0000  -7.8260   0.0000   0.0000   0.0000   0.2584
  19.400   1.1289   0.15043   0.14715  -0.0466  0.0096  1.0000  -7.7645   0.0000   0.0000   0.0000   0.2602
  19.500   1.1232   0.15358   0.15037  -0.0486  0.0097  1.0000  -7.6981   0.0000   0.0000   0.0000   0.2621
  19.600   1.1175   0.15679   0.15364  -0.0507  0.0097  1.0000  -7.6264   0.0000   0.0000   0.0000   0.2640
  19.700   1.1117   0.16005   0.15695  -0.0528  0.0097  1.0000  -7.5492   0.0000   0.0000   0.0000   0.2660
  19.800   1.1059   0.16334   0.16029  -0.0550  0.0098  1.0000  -7.4667   0.0000   0.0000   0.0000   0.2680
  19.900   1.1003   0.16661   0.16361  -0.0571  0.0098  1.0000  -7.3799   0.0000   0.0000   0.0000   0.2701
  20.000   1.0958   0.16982   0.16688  -0.0593  0.0098  1.0000  -7.3134   0.0000   0.0000   0.0000   0.2722
  20.100   1.0911   0.17320   0.17032  -0.0617  0.0099  1.0000  -7.2395   0.0000   0.0000   0.0000   0.2745
  20.200   1.0850   0.17720   0.17439  -0.0645  0.0099  1.0000  -7.1298   0.0000   0.0000   0.0000   0.2773


